plots/csv/rotor_angle_dev_bus01_julia.csv
t_s,rotor_angle_dev_rad,bus_voltage_angle_dev_rad,angle_source,angle_is_exact_bus_voltage
0.0,0.0,0.0,Vmag_get_voltage_magnitude_series__angle_get_voltage_angle_series,true
0.01,2.7512714328992135e-16,2.7512714328992135e-16,Vmag_get_voltage_magnitude_series__angle_get_voltage_angle_series,true
0.02,1.2281842209915907e-16,1.2281842209915907e-16,Vmag_get_voltage_magnitude_series__angle_get_voltage_angle_series,true
0.03,6.418476861114064e-17,6.418476861114064e-17,Vmag_get_voltage_magnitude_series__angle_get_voltage_angle_series,true
0.04,1.6028844918025713e-16,1.6028844918025713e-16,Vmag_get_voltage_magnitude_series__angle_get_voltage_angle_series,true
0.05,3.018418848200274e-17,3.018418848200274e-17,Vmag_get_voltage_magnitude_series__angle_get_voltage_angle_series,true
0.06,6.106226635437838e-17,6.106226635437838e-17,Vmag_get_voltage_magnitude_series__angle_get_voltage_angle_series,true
0.07,7.840950111415107e-17,7.840950111415107e-17,Vmag_get_voltage_magnitude_series__angle_get_voltage_angle_series,true
0.08,1.0408340855878025e-17,1.0408340855878025e-17,Vmag_get_voltage_magnitude_series__angle_get_voltage_angle_series,true
0.09,4.7531423241762515e-17,4.7531423241762515e-17,Vmag_get_voltage_magnitude_series__angle_get_voltage_angle_series,true
0.1,-2.42861286636753e-17,-2.42861286636753e-17,Vmag_get_voltage_magnitude_series__angle_get_voltage_angle_series,true
0.11,-0.0005141057514625259,-0.0005141057514625259,Vmag_get_voltage_magnitude_series__angle_get_voltage_angle_series,true
0.12,-0.0006316585234345293,-0.0006316585234345293,Vmag_get_voltage_magnitude_series__angle_get_voltage_angle_series,true
0.13,-0.0005529115613955798,-0.0005529115613955798,Vmag_get_voltage_magnitude_series__angle_get_voltage_angle_series,true
0.14,-0.0005410608070393763,-0.0005410608070393763,Vmag_get_voltage_magnitude_series__angle_get_voltage_angle_series,true
0.15,-0.000555803416690861,-0.000555803416690861,Vmag_get_voltage_magnitude_series__angle_get_voltage_angle_series,true
0.16,-0.0005904108641450622,-0.0005904108641450622,Vmag_get_voltage_magnitude_series__angle_get_voltage_angle_series,true
0.17,-0.0006348350190998047,-0.0006348350190998047,Vmag_get_voltage_magnitude_series__angle_get_voltage_angle_series,true
0.18,-0.000688095747523358,-0.000688095747523358,Vmag_get_voltage_magnitude_series__angle_get_voltage_angle_series,true
0.19,-0.0007472356944435628,-0.0007472356944435628,Vmag_get_voltage_magnitude_series__angle_get_voltage_angle_series,true
0.2,-0.0008115236902010138,-0.0008115236902010138,Vmag_get_voltage_magnitude_series__angle_get_voltage_angle_series,true
0.21,-0.0008801048117286949,-0.0008801048117286949,Vmag_get_voltage_magnitude_series__angle_get_voltage_angle_series,true
0.22,-0.0009525993461132077,-0.0009525993461132077,Vmag_get_voltage_magnitude_series__angle_get_voltage_angle_series,true
0.23,-0.001028615965750004,-0.001028615965750004,Vmag_get_voltage_magnitude_series__angle_get_voltage_angle_series,true
0.24,-0.0011079032173333082,-0.0011079032173333082,Vmag_get_voltage_magnitude_series__angle_get_voltage_angle_series,true
0.25,-0.0011902615031674482,-0.0011902615031674482,Vmag_get_voltage_magnitude_series__angle_get_voltage_angle_series,true
0.26,-0.0012755514025220036,-0.0012755514025220036,Vmag_get_voltage_magnitude_series__angle_get_voltage_angle_series,true
0.27,-0.0013636709026002098,-0.0013636709026002098,Vmag_get_voltage_magnitude_series__angle_get_voltage_angle_series,true
0.28,-0.0014545488341207728,-0.0014545488341207728,Vmag_get_voltage_magnitude_series__angle_get_voltage_angle_series,true
0.29,-0.0015481346622536669,-0.0015481346622536669,Vmag_get_voltage_magnitude_series__angle_get_voltage_angle_series,true
0.3,-0.001644391702645173,-0.001644391702645173,Vmag_get_voltage_magnitude_series__angle_get_voltage_angle_series,true
0.31,-0.0017432901700441075,-0.0017432901700441075,Vmag_get_voltage_magnitude_series__angle_get_voltage_angle_series,true
0.32,-0.0018448015014088952,-0.0018448015014088952,Vmag_get_voltage_magnitude_series__angle_get_voltage_angle_series,true
0.33,-0.001948893314092138,-0.001948893314092138,Vmag_get_voltage_magnitude_series__angle_get_voltage_angle_series,true
0.34,-0.002055525109015747,-0.002055525109015747,Vmag_get_voltage_magnitude_series__angle_get_voltage_angle_series,true
0.35,-0.0021646449007418295,-0.0021646449007418295,Vmag_get_voltage_magnitude_series__angle_get_voltage_angle_series,true
0.36,-0.0022761866407544026,-0.0022761866407544026,Vmag_get_voltage_magnitude_series__angle_get_voltage_angle_series,true
0.37,-0.0023900684983146014,-0.0023900684983146014,Vmag_get_voltage_magnitude_series__angle_get_voltage_angle_series,true
0.38,-0.002506192041247271,-0.002506192041247271,Vmag_get_voltage_magnitude_series__angle_get_voltage_angle_series,true
0.39,-0.0026244419922312333,-0.0026244419922312333,Vmag_get_voltage_magnitude_series__angle_get_voltage_angle_series,true
0.4,-0.002744686833801665,-0.002744686833801665,Vmag_get_voltage_magnitude_series__angle_get_voltage_angle_series,true
0.41,-0.002866779741706402,-0.002866779741706402,Vmag_get_voltage_magnitude_series__angle_get_voltage_angle_series,true
0.42,-0.0029905600346033234,-0.0029905600346033234,Vmag_get_voltage_magnitude_series__angle_get_voltage_angle_series,true
0.43,-0.003115854890936633,-0.003115854890936633,Vmag_get_voltage_magnitude_series__angle_get_voltage_angle_series,true
0.44,-0.003242481138340343,-0.003242481138340343,Vmag_get_voltage_magnitude_series__angle_get_voltage_angle_series,true
0.45,-0.0033702472890600613,-0.0033702472890600613,Vmag_get_voltage_magnitude_series__angle_get_voltage_angle_series,true
0.46,-0.003498955424575039,-0.003498955424575039,Vmag_get_voltage_magnitude_series__angle_get_voltage_angle_series,true
0.47,-0.003628403144426994,-0.003628403144426994,Vmag_get_voltage_magnitude_series__angle_get_voltage_angle_series,true
0.48,-0.0037583853873486284,-0.0037583853873486284,Vmag_get_voltage_magnitude_series__angle_get_voltage_angle_series,true
0.49,-0.003888696140283797,-0.003888696140283797,Vmag_get_voltage_magnitude_series__angle_get_voltage_angle_series,true
0.5,-0.004019130072437724,-0.004019130072437724,Vmag_get_voltage_magnitude_series__angle_get_voltage_angle_series,true
0.51,-0.004149483985198273,-0.004149483985198273,Vmag_get_voltage_magnitude_series__angle_get_voltage_angle_series,true
0.52,-0.004279558188886953,-0.004279558188886953,Vmag_get_voltage_magnitude_series__angle_get_voltage_angle_series,true
0.53,-0.00440915771353121,-0.00440915771353121,Vmag_get_voltage_magnitude_series__angle_get_voltage_angle_series,true
0.54,-0.0045380934151531705,-0.0045380934151531705,Vmag_get_voltage_magnitude_series__angle_get_voltage_angle_series,true
0.55,-0.004666182971676975,-0.004666182971676975,Vmag_get_voltage_magnitude_series__angle_get_voltage_angle_series,true
0.56,-0.00479325171684001,-0.00479325171684001,Vmag_get_voltage_magnitude_series__angle_get_voltage_angle_series,true
0.57,-0.004919133423746269,-0.004919133423746269,Vmag_get_voltage_magnitude_series__angle_get_voltage_angle_series,true
0.58,-0.005043670918848052,-0.005043670918848052,Vmag_get_voltage_magnitude_series__angle_get_voltage_angle_series,true
0.59,-0.005166716614918239,-0.005166716614918239,Vmag_get_voltage_magnitude_series__angle_get_voltage_angle_series,true
0.6,-0.005288132950638234,-0.005288132950638234,Vmag_get_voltage_magnitude_series__angle_get_voltage_angle_series,true
0.61,-0.005407792698497548,-0.005407792698497548,Vmag_get_voltage_magnitude_series__angle_get_voltage_angle_series,true
0.62,-0.005525579214891545,-0.005525579214891545,Vmag_get_voltage_magnitude_series__angle_get_voltage_angle_series,true
0.63,-0.00564138657869497,-0.00564138657869497,Vmag_get_voltage_magnitude_series__angle_get_voltage_angle_series,true
0.64,-0.005755119661895322,-0.005755119661895322,Vmag_get_voltage_magnitude_series__angle_get_voltage_angle_series,true
0.65,-0.005866694121727217,-0.005866694121727217,Vmag_get_voltage_magnitude_series__angle_get_voltage_angle_series,true
0.66,-0.005976036331202172,-0.005976036331202172,Vmag_get_voltage_magnitude_series__angle_get_voltage_angle_series,true
0.67,-0.006083083243056047,-0.006083083243056047,Vmag_get_voltage_magnitude_series__angle_get_voltage_angle_series,true
0.68,-0.006187782211312942,-0.006187782211312942,Vmag_get_voltage_magnitude_series__angle_get_voltage_angle_series,true
0.69,-0.006290090758367392,-0.006290090758367392,Vmag_get_voltage_magnitude_series__angle_get_voltage_angle_series,true
0.7,-0.006389976304620373,-0.006389976304620373,Vmag_get_voltage_magnitude_series__angle_get_voltage_angle_series,true
0.71,-0.0064874158621844435,-0.0064874158621844435,Vmag_get_voltage_magnitude_series__angle_get_voltage_angle_series,true
0.72,-0.006582395701627072,-0.006582395701627072,Vmag_get_voltage_magnitude_series__angle_get_voltage_angle_series,true
0.73,-0.006674910988076074,-0.006674910988076074,Vmag_get_voltage_magnitude_series__angle_get_voltage_angle_series,true
0.74,-0.006764965399943543,-0.006764965399943543,Vmag_get_voltage_magnitude_series__angle_get_voltage_angle_series,true
0.75,-0.006852570719678555,-0.006852570719678555,Vmag_get_voltage_magnitude_series__angle_get_voltage_angle_series,true
0.76,-0.0069377464204310475,-0.0069377464204310475,Vmag_get_voltage_magnitude_series__angle_get_voltage_angle_series,true
0.77,-0.007020519231762722,-0.007020519231762722,Vmag_get_voltage_magnitude_series__angle_get_voltage_angle_series,true
0.78,-0.00710092268876647,-0.00710092268876647,Vmag_get_voltage_magnitude_series__angle_get_voltage_angle_series,true
0.79,-0.007178996686605127,-0.007178996686605127,Vmag_get_voltage_magnitude_series__angle_get_voltage_angle_series,true
0.8,-0.007254787010897368,-0.007254787010897368,Vmag_get_voltage_magnitude_series__angle_get_voltage_angle_series,true
0.81,-0.007328344873379763,-0.007328344873379763,Vmag_get_voltage_magnitude_series__angle_get_voltage_angle_series,true
0.82,-0.007399726442811475,-0.007399726442811475,Vmag_get_voltage_magnitude_series__angle_get_voltage_angle_series,true
0.83,-0.00746899236092401,-0.00746899236092401,Vmag_get_voltage_magnitude_series__angle_get_voltage_angle_series,true
0.84,-0.007536207278307754,-0.007536207278307754,Vmag_get_voltage_magnitude_series__angle_get_voltage_angle_series,true
0.85,-0.007601439372458305,-0.007601439372458305,Vmag_get_voltage_magnitude_series__angle_get_voltage_angle_series,true
0.86,-0.007664759876975368,-0.007664759876975368,Vmag_get_voltage_magnitude_series__angle_get_voltage_angle_series,true
0.87,-0.007726242616069513,-0.007726242616069513,Vmag_get_voltage_magnitude_series__angle_get_voltage_angle_series,true
0.88,-0.007785963537165283,-0.007785963537165283,Vmag_get_voltage_magnitude_series__angle_get_voltage_angle_series,true
0.89,-0.007844000262116192,-0.007844000262116192,Vmag_get_voltage_magnitude_series__angle_get_voltage_angle_series,true
0.9,-0.00790043163595707,-0.00790043163595707,Vmag_get_voltage_magnitude_series__angle_get_voltage_angle_series,true
0.91,-0.007955337296485405,-0.007955337296485405,Vmag_get_voltage_magnitude_series__angle_get_voltage_angle_series,true
0.92,-0.008008797251937868,-0.008008797251937868,Vmag_get_voltage_magnitude_series__angle_get_voltage_angle_series,true
0.93,-0.008060891470159657,-0.008060891470159657,Vmag_get_voltage_magnitude_series__angle_get_voltage_angle_series,true
0.94,-0.008111699494840486,-0.008111699494840486,Vmag_get_voltage_magnitude_series__angle_get_voltage_angle_series,true
0.95,-0.008161300065398867,-0.008161300065398867,Vmag_get_voltage_magnitude_series__angle_get_voltage_angle_series,true
0.96,-0.008209770767314937,-0.008209770767314937,Vmag_get_voltage_magnitude_series__angle_get_voltage_angle_series,true
0.97,-0.00825718769868331,-0.00825718769868331,Vmag_get_voltage_magnitude_series__angle_get_voltage_angle_series,true
0.98,-0.008303625156902169,-0.008303625156902169,Vmag_get_voltage_magnitude_series__angle_get_voltage_angle_series,true
0.99,-0.008349155354122093,-0.008349155354122093,Vmag_get_voltage_magnitude_series__angle_get_voltage_angle_series,true
1.0,-0.0083938481506417,-0.0083938481506417,Vmag_get_voltage_magnitude_series__angle_get_voltage_angle_series,true
1.01,-0.008437770816801051,-0.008437770816801051,Vmag_get_voltage_magnitude_series__angle_get_voltage_angle_series,true
1.02,-0.008480987819304682,-0.008480987819304682,Vmag_get_voltage_magnitude_series__angle_get_voltage_angle_series,true
1.03,-0.008523560633817578,-0.008523560633817578,Vmag_get_voltage_magnitude_series__angle_get_voltage_angle_series,true
1.04,-0.008565547581838487,-0.008565547581838487,Vmag_get_voltage_magnitude_series__angle_get_voltage_angle_series,true
1.05,-0.008607003696104927,-0.008607003696104927,Vmag_get_voltage_magnitude_series__angle_get_voltage_angle_series,true
1.06,-0.008647980610318934,-0.008647980610318934,Vmag_get_voltage_magnitude_series__angle_get_voltage_angle_series,true
1.07,-0.008688526473877875,-0.008688526473877875,Vmag_get_voltage_magnitude_series__angle_get_voltage_angle_series,true
1.08,-0.008728685893481171,-0.008728685893481171,Vmag_get_voltage_magnitude_series__angle_get_voltage_angle_series,true
1.09,-0.008768499897871809,-0.008768499897871809,Vmag_get_voltage_magnitude_series__angle_get_voltage_angle_series,true
1.1,-0.008808005925705227,-0.008808005925705227,Vmag_get_voltage_magnitude_series__angle_get_voltage_angle_series,true
1.11,-0.008847237836890494,-0.008847237836890494,Vmag_get_voltage_magnitude_series__angle_get_voltage_angle_series,true
1.12,-0.008886225943862874,-0.008886225943862874,Vmag_get_voltage_magnitude_series__angle_get_voltage_angle_series,true
1.13,-0.008924997066815295,-0.008924997066815295,Vmag_get_voltage_magnitude_series__angle_get_voltage_angle_series,true
1.14,-0.00896357460244759,-0.00896357460244759,Vmag_get_voltage_magnitude_series__angle_get_voltage_angle_series,true
1.15,-0.009001978613264338,-0.009001978613264338,Vmag_get_voltage_magnitude_series__angle_get_voltage_angle_series,true
1.16,-0.009040225936577492,-0.009040225936577492,Vmag_get_voltage_magnitude_series__angle_get_voltage_angle_series,true
1.17,-0.009078330299887976,-0.009078330299887976,Vmag_get_voltage_magnitude_series__angle_get_voltage_angle_series,true
1.18,-0.009116302457560278,-0.009116302457560278,Vmag_get_voltage_magnitude_series__angle_get_voltage_angle_series,true
1.19,-0.009154150335400426,-0.009154150335400426,Vmag_get_voltage_magnitude_series__angle_get_voltage_angle_series,true
1.2,-0.009191879184074159,-0.009191879184074159,Vmag_get_voltage_magnitude_series__angle_get_voltage_angle_series,true
1.21,-0.00922949174820244,-0.00922949174820244,Vmag_get_voltage_magnitude_series__angle_get_voltage_angle_series,true
1.22,-0.009266988432230876,-0.009266988432230876,Vmag_get_voltage_magnitude_series__angle_get_voltage_angle_series,true
1.23,-0.009304367481332556,-0.009304367481332556,Vmag_get_voltage_magnitude_series__angle_get_voltage_angle_series,true
1.24,-0.009341625162684114,-0.009341625162684114,Vmag_get_voltage_magnitude_series__angle_get_voltage_angle_series,true
1.25,-0.009378755948736628,-0.009378755948736628,Vmag_get_voltage_magnitude_series__angle_get_voltage_angle_series,true
1.26,-0.009415752705432243,-0.009415752705432243,Vmag_get_voltage_magnitude_series__angle_get_voltage_angle_series,true
1.27,-0.009452606877083748,-0.009452606877083748,Vmag_get_voltage_magnitude_series__angle_get_voltage_angle_series,true
1.28,-0.009489308674206593,-0.009489308674206593,Vmag_get_voltage_magnitude_series__angle_get_voltage_angle_series,true
1.29,-0.009525847255819047,-0.009525847255819047,Vmag_get_voltage_magnitude_series__angle_get_voltage_angle_series,true
1.3,-0.009562210910417224,-0.009562210910417224,Vmag_get_voltage_magnitude_series__angle_get_voltage_angle_series,true
1.31,-0.009598387233999545,-0.009598387233999545,Vmag_get_voltage_magnitude_series__angle_get_voltage_angle_series,true
1.32,-0.009634363299013623,-0.009634363299013623,Vmag_get_voltage_magnitude_series__angle_get_voltage_angle_series,true
1.33,-0.00967012582247413,-0.00967012582247413,Vmag_get_voltage_magnitude_series__angle_get_voltage_angle_series,true
1.34,-0.009705661322715784,-0.009705661322715784,Vmag_get_voltage_magnitude_series__angle_get_voltage_angle_series,true
1.35,-0.009740956271670034,-0.009740956271670034,Vmag_get_voltage_magnitude_series__angle_get_voltage_angle_series,true
1.36,-0.009775997238074714,-0.009775997238074714,Vmag_get_voltage_magnitude_series__angle_get_voltage_angle_series,true
1.37,-0.009810771020656812,-0.009810771020656812,Vmag_get_voltage_magnitude_series__angle_get_voltage_angle_series,true
1.38,-0.009845264774926008,-0.009845264774926008,Vmag_get_voltage_magnitude_series__angle_get_voltage_angle_series,true
1.39,-0.009879466127417729,-0.009879466127417729,Vmag_get_voltage_magnitude_series__angle_get_voltage_angle_series,true
1.4,-0.009913363282041218,-0.009913363282041218,Vmag_get_voltage_magnitude_series__angle_get_voltage_angle_series,true
1.41,-0.009946945115588409,-0.009946945115588409,Vmag_get_voltage_magnitude_series__angle_get_voltage_angle_series,true
1.42,-0.009980201262363361,-0.009980201262363361,Vmag_get_voltage_magnitude_series__angle_get_voltage_angle_series,true
1.43,-0.010013122189352484,-0.010013122189352484,Vmag_get_voltage_magnitude_series__angle_get_voltage_angle_series,true
1.44,-0.010045699260205545,-0.010045699260205545,Vmag_get_voltage_magnitude_series__angle_get_voltage_angle_series,true
1.45,-0.010077924789353205,-0.010077924789353205,Vmag_get_voltage_magnitude_series__angle_get_voltage_angle_series,true
1.46,-0.010109792084724721,-0.010109792084724721,Vmag_get_voltage_magnitude_series__angle_get_voltage_angle_series,true
1.47,-0.010141295481773307,-0.010141295481773307,Vmag_get_voltage_magnitude_series__angle_get_voltage_angle_series,true
1.48,-0.010172430367482619,-0.010172430367482619,Vmag_get_voltage_magnitude_series__angle_get_voltage_angle_series,true
1.49,-0.010203193192293979,-0.010203193192293979,Vmag_get_voltage_magnitude_series__angle_get_voltage_angle_series,true
1.5,-0.010233581476656612,-0.010233581476656612,Vmag_get_voltage_magnitude_series__angle_get_voltage_angle_series,true
1.51,-0.010263593805715256,-0.010263593805715256,Vmag_get_voltage_magnitude_series__angle_get_voltage_angle_series,true
1.52,-0.010293229816804366,-0.010293229816804366,Vmag_get_voltage_magnitude_series__angle_get_voltage_angle_series,true
1.53,-0.010322490179274122,-0.010322490179274122,Vmag_get_voltage_magnitude_series__angle_get_voltage_angle_series,true
1.54,-0.010351376565548857,-0.010351376565548857,Vmag_get_voltage_magnitude_series__angle_get_voltage_angle_series,true
1.55,-0.010379891617290943,-0.010379891617290943,Vmag_get_voltage_magnitude_series__angle_get_voltage_angle_series,true
1.56,-0.01040803890330605,-0.01040803890330605,Vmag_get_voltage_magnitude_series__angle_get_voltage_angle_series,true
1.57,-0.010435822872679794,-0.010435822872679794,Vmag_get_voltage_magnitude_series__angle_get_voltage_angle_series,true
1.58,-0.010463248803692642,-0.010463248803692642,Vmag_get_voltage_magnitude_series__angle_get_voltage_angle_series,true
1.59,-0.010490322745721082,-0.010490322745721082,Vmag_get_voltage_magnitude_series__angle_get_voltage_angle_series,true
1.6,-0.010517051460376708,-0.010517051460376708,Vmag_get_voltage_magnitude_series__angle_get_voltage_angle_series,true
1.61,-0.010543442356963976,-0.010543442356963976,Vmag_get_voltage_magnitude_series__angle_get_voltage_angle_series,true
1.62,-0.010569503426415218,-0.010569503426415218,Vmag_get_voltage_magnitude_series__angle_get_voltage_angle_series,true
1.63,-0.010595243173489982,-0.010595243173489982,Vmag_get_voltage_magnitude_series__angle_get_voltage_angle_series,true
1.64,-0.010620670546386355,-0.010620670546386355,Vmag_get_voltage_magnitude_series__angle_get_voltage_angle_series,true
1.65,-0.010645794867334572,-0.010645794867334572,Vmag_get_voltage_magnitude_series__angle_get_voltage_angle_series,true
1.66,-0.01067062576087396,-0.01067062576087396,Vmag_get_voltage_magnitude_series__angle_get_voltage_angle_series,true
1.67,-0.010695173084309482,-0.010695173084309482,Vmag_get_voltage_magnitude_series__angle_get_voltage_angle_series,true
1.68,-0.010719446858060562,-0.010719446858060562,Vmag_get_voltage_magnitude_series__angle_get_voltage_angle_series,true
1.69,-0.010743457196938243,-0.010743457196938243,Vmag_get_voltage_magnitude_series__angle_get_voltage_angle_series,true
1.7,-0.010767214244778153,-0.010767214244778153,Vmag_get_voltage_magnitude_series__angle_get_voltage_angle_series,true
1.71,-0.010790728109328266,-0.010790728109328266,Vmag_get_voltage_magnitude_series__angle_get_voltage_angle_series,true
1.72,-0.010814008801291049,-0.010814008801291049,Vmag_get_voltage_magnitude_series__angle_get_voltage_angle_series,true
1.73,-0.010837066175638302,-0.010837066175638302,Vmag_get_voltage_magnitude_series__angle_get_voltage_angle_series,true
1.74,-0.01085990987621005,-0.01085990987621005,Vmag_get_voltage_magnitude_series__angle_get_voltage_angle_series,true
1.75,-0.010882549284344333,-0.010882549284344333,Vmag_get_voltage_magnitude_series__angle_get_voltage_angle_series,true
1.76,-0.0109049934707779,-0.0109049934707779,Vmag_get_voltage_magnitude_series__angle_get_voltage_angle_series,true
1.77,-0.010927251152028316,-0.010927251152028316,Vmag_get_voltage_magnitude_series__angle_get_voltage_angle_series,true
1.78,-0.010949330650675337,-0.010949330650675337,Vmag_get_voltage_magnitude_series__angle_get_voltage_angle_series,true
1.79,-0.010971239860306802,-0.010971239860306802,Vmag_get_voltage_magnitude_series__angle_get_voltage_angle_series,true
1.8,-0.010992986214568614,-0.010992986214568614,Vmag_get_voltage_magnitude_series__angle_get_voltage_angle_series,true
1.81,-0.011014576660628677,-0.011014576660628677,Vmag_get_voltage_magnitude_series__angle_get_voltage_angle_series,true
1.82,-0.011036017637983852,-0.011036017637983852,Vmag_get_voltage_magnitude_series__angle_get_voltage_angle_series,true
1.83,-0.011057315060313381,-0.011057315060313381,Vmag_get_voltage_magnitude_series__angle_get_voltage_angle_series,true
1.84,-0.011078474303098362,-0.011078474303098362,Vmag_get_voltage_magnitude_series__angle_get_voltage_angle_series,true
1.85,-0.011099500194956816,-0.011099500194956816,Vmag_get_voltage_magnitude_series__angle_get_voltage_angle_series,true
1.86,-0.01112039701321366,-0.01112039701321366,Vmag_get_voltage_magnitude_series__angle_get_voltage_angle_series,true
1.87,-0.011141168483910514,-0.011141168483910514,Vmag_get_voltage_magnitude_series__angle_get_voltage_angle_series,true
1.88,-0.011161817785289555,-0.011161817785289555,Vmag_get_voltage_magnitude_series__angle_get_voltage_angle_series,true
1.89,-0.01118234755571911,-0.01118234755571911,Vmag_get_voltage_magnitude_series__angle_get_voltage_angle_series,true
1.9,-0.011202759904424186,-0.011202759904424186,Vmag_get_voltage_magnitude_series__angle_get_voltage_angle_series,true
1.91,-0.011223056425910661,-0.011223056425910661,Vmag_get_voltage_magnitude_series__angle_get_voltage_angle_series,true
1.92,-0.011243238217972417,-0.011243238217972417,Vmag_get_voltage_magnitude_series__angle_get_voltage_angle_series,true
1.93,-0.011263305901394032,-0.011263305901394032,Vmag_get_voltage_magnitude_series__angle_get_voltage_angle_series,true
1.94,-0.01128325964336896,-0.01128325964336896,Vmag_get_voltage_magnitude_series__angle_get_voltage_angle_series,true
1.95,-0.01130309918266779,-0.01130309918266779,Vmag_get_voltage_magnitude_series__angle_get_voltage_angle_series,true
1.96,-0.01132282385662861,-0.01132282385662861,Vmag_get_voltage_magnitude_series__angle_get_voltage_angle_series,true
1.97,-0.011342432630921469,-0.011342432630921469,Vmag_get_voltage_magnitude_series__angle_get_voltage_angle_series,true
1.98,-0.011361924129227385,-0.011361924129227385,Vmag_get_voltage_magnitude_series__angle_get_voltage_angle_series,true
1.99,-0.011381296665486085,-0.011381296665486085,Vmag_get_voltage_magnitude_series__angle_get_voltage_angle_series,true
...
